<?xml version="1.0" encoding="ISO-8859-1"?>
<febio_spec version="4.0">
	<Module type="solid"/>
	<Control>
		<analysis>STATIC</analysis>
		<time_steps>10</time_steps>
		<step_size>0.1</step_size>
		<plot_zero_state>0</plot_zero_state>
		<plot_range>0,-1</plot_range>
		<plot_level>PLOT_MAJOR_ITRS</plot_level>
		<output_level>OUTPUT_MAJOR_ITRS</output_level>
		<plot_stride>1</plot_stride>
		<output_stride>1</output_stride>
		<adaptor_re_solve>1</adaptor_re_solve>
		<time_stepper type="default">
			<max_retries>5</max_retries>
			<opt_iter>11</opt_iter>
			<dtmin>0</dtmin>
			<dtmax>0.1</dtmax>
			<aggressiveness>0</aggressiveness>
			<cutback>0.5</cutback>
			<dtforce>0</dtforce>
		</time_stepper>
		<solver type="solid">
			<symmetric_stiffness>preferred</symmetric_stiffness>
			<equation_scheme>staggered</equation_scheme>
			<equation_order>default</equation_order>
			<optimize_bw>0</optimize_bw>
			<lstol>0.9</lstol>
			<lsmin>0.01</lsmin>
			<lsiter>5</lsiter>
			<ls_check_jacobians>0</ls_check_jacobians>
			<max_refs>15</max_refs>
			<check_zero_diagonal>0</check_zero_diagonal>
			<zero_diagonal_tol>0</zero_diagonal_tol>
			<force_partition>0</force_partition>
			<reform_each_time_step>1</reform_each_time_step>
			<reform_augment>0</reform_augment>
			<diverge_reform>1</diverge_reform>
			<min_residual>1e-20</min_residual>
			<max_residual>0</max_residual>
			<dtol>0.001</dtol>
			<etol>0.01</etol>
			<rtol>0</rtol>
			<rhoi>-2</rhoi>
			<alpha>1</alpha>
			<beta>0.25</beta>
			<gamma>0.5</gamma>
			<logSolve>0</logSolve>
			<arc_length>0</arc_length>
			<arc_length_scale>0</arc_length_scale>
			<qn_method type="BFGS">
				<max_ups>10</max_ups>
				<max_buffer_size>0</max_buffer_size>
				<cycle_buffer>1</cycle_buffer>
				<cmax>100000</cmax>
			</qn_method>
		</solver>
	</Control>
	<Globals>
		<Constants>
			<T>0</T>
			<P>0</P>
			<R>8.31446</R>
			<Fc>96485.3</Fc>
		</Constants>
	</Globals>
	<Material>
		<material id="1" name="Material1" type="isotropic elastic">
			<density>1040</density>
			<E>1000000</E>
			<v>0.48</v>
		</material>
	</Material>
	<Mesh>
		<Nodes name="Object1">
			<node id="1">-0.5,-0.5,0</node>
			<node id="2">0.5,-0.5,0</node>
			<node id="3">0.5,0.5,0</node>
			<node id="4">-0.5,0.5,0</node>
			<node id="5">-0.5,-0.5,1</node>
			<node id="6">0.5,-0.5,1</node>
			<node id="7">0.5,0.5,1</node>
			<node id="8">-0.5,0.5,1</node>
			<node id="9">-0.3,-0.5,0</node>
			<node id="10">-0.1,-0.5,0</node>
			<node id="11">0.1,-0.5,0</node>
			<node id="12">0.3,-0.5,0</node>
			<node id="13">0.5,-0.5,0.2</node>
			<node id="14">0.5,-0.5,0.4</node>
			<node id="15">0.5,-0.5,0.6</node>
			<node id="16">0.5,-0.5,0.8</node>
			<node id="17">0.3,-0.5,1</node>
			<node id="18">0.1,-0.5,1</node>
			<node id="19">-0.1,-0.5,1</node>
			<node id="20">-0.3,-0.5,1</node>
<!-- ... 196 like lines cut -->
		</Nodes>
		<Elements type="hex8" name="Part1">
			<elem id="1">1,9,133,52,24,57,153,108</elem>
			<elem id="2">9,10,134,133,57,58,154,153</elem>
			<elem id="3">10,11,135,134,58,59,155,154</elem>
			<elem id="4">11,12,136,135,59,60,156,155</elem>
			<elem id="5">12,2,25,136,60,13,73,156</elem>
			<elem id="6">52,133,129,51,108,153,157,107</elem>
			<elem id="7">133,134,130,129,153,154,158,157</elem>
			<elem id="8">134,135,131,130,154,155,159,158</elem>
			<elem id="9">135,136,132,131,155,156,160,159</elem>
			<elem id="10">136,25,26,132,156,73,74,160</elem>
			<elem id="11">51,129,125,50,107,157,161,106</elem>
			<elem id="12">129,130,126,125,157,158,162,161</elem>
			<elem id="13">130,131,127,126,158,159,163,162</elem>
			<elem id="14">131,132,128,127,159,160,164,163</elem>
			<elem id="15">132,26,27,128,160,74,75,164</elem>
			<elem id="16">50,125,121,49,106,161,165,105</elem>
			<elem id="17">125,126,122,121,161,162,166,165</elem>
			<elem id="18">126,127,123,122,162,163,167,166</elem>
			<elem id="19">127,128,124,123,163,164,168,167</elem>
			<elem id="20">128,27,28,124,164,75,76,168</elem>
<!-- ... 105 like lines cut -->
		</Elements>
		<Surface name="ZeroDisplacement1">
			<quad4 id="1">4,40,121,49</quad4>
			<quad4 id="2">40,39,122,121</quad4>
			<quad4 id="3">39,38,123,122</quad4>
			<quad4 id="4">38,37,124,123</quad4>
			<quad4 id="5">37,3,28,124</quad4>
			<quad4 id="6">49,121,125,50</quad4>
			<quad4 id="7">121,122,126,125</quad4>
			<quad4 id="8">122,123,127,126</quad4>
			<quad4 id="9">123,124,128,127</quad4>
			<quad4 id="10">124,28,27,128</quad4>
			<quad4 id="11">50,125,129,51</quad4>
			<quad4 id="12">125,126,130,129</quad4>
			<quad4 id="13">126,127,131,130</quad4>
			<quad4 id="14">127,128,132,131</quad4>
			<quad4 id="15">128,27,26,132</quad4>
			<quad4 id="16">51,129,133,52</quad4>
			<quad4 id="17">129,130,134,133</quad4>
			<quad4 id="18">130,131,135,134</quad4>
			<quad4 id="19">131,132,136,135</quad4>
			<quad4 id="20">132,26,25,136</quad4>
<!-- ... 5 like lines cut -->
		</Surface>
		<Surface name="Pressure1">
			<quad4 id="1">5,20,137,53</quad4>
			<quad4 id="2">20,19,138,137</quad4>
			<quad4 id="3">19,18,139,138</quad4>
			<quad4 id="4">18,17,140,139</quad4>
			<quad4 id="5">17,6,36,140</quad4>
			<quad4 id="6">53,137,141,54</quad4>
			<quad4 id="7">137,138,142,141</quad4>
			<quad4 id="8">138,139,143,142</quad4>
			<quad4 id="9">139,140,144,143</quad4>
			<quad4 id="10">140,36,35,144</quad4>
			<quad4 id="11">54,141,145,55</quad4>
			<quad4 id="12">141,142,146,145</quad4>
			<quad4 id="13">142,143,147,146</quad4>
			<quad4 id="14">143,144,148,147</quad4>
			<quad4 id="15">144,35,34,148</quad4>
			<quad4 id="16">55,145,149,56</quad4>
			<quad4 id="17">145,146,150,149</quad4>
			<quad4 id="18">146,147,151,150</quad4>
			<quad4 id="19">147,148,152,151</quad4>
			<quad4 id="20">148,34,33,152</quad4>
<!-- ... 5 like lines cut -->
		</Surface>
	</Mesh>
	<MeshDomains>
		<SolidDomain name="Part1" mat="Material1"/>
	</MeshDomains>
	<Boundary>
		<bc name="ZeroDisplacement1" node_set="@surface:ZeroDisplacement1" type="zero displacement">
			<x_dof>1</x_dof>
			<y_dof>1</y_dof>
			<z_dof>1</z_dof>
		</bc>
	</Boundary>
	<Loads>
		<surface_load name="Pressure1" surface="Pressure1" type="pressure">
			<pressure lc="1">100000</pressure>
			<symmetric_stiffness>1</symmetric_stiffness>
			<linear>0</linear>
			<shell_bottom>0</shell_bottom>
		</surface_load>
	</Loads>
	<LoadData>
		<load_controller id="1" name="LC1" type="loadcurve">
			<interpolate>LINEAR</interpolate>
			<extend>CONSTANT</extend>
			<points>
				<pt>0,0</pt>
				<pt>1,1</pt>
			</points>
		</load_controller>
	</LoadData>
	<Output>
		<plotfile type="febio">
			<var type="displacement"/>
			<var type="stress"/>
			<var type="relative volume"/>
			<var type="surface traction"/>
			<var type="nodal surface traction"/>
		</plotfile>
		<logfile>
			<element_data data="x"/>
			<element_data data="y"/>
			<element_data data="z"/>
			<element_data data="Fxx;Fxy;Fxz;Fyx;Fyy;Fyz;Fzx;Fzy;Fzz" file="deformation.txt"/>
			<element_data data="x;y;z" file="centroids.txt"/>
		</logfile>
	</Output>
</febio_spec>
